/*---------------------------------------------------------------------------*\
  =========                 |
  \\      /  F ield         | OpenFOAM: The Open Source CFD Toolbox
   \\    /   O peration     | Website:  https://openfoam.org
    \\  /    A nd           | Version:  9
     \\/     M anipulation  |
\*---------------------------------------------------------------------------*/
Build  : 9-b456138dc4bc
Exec   : blockMesh
Date   : Feb 19 2022
Time   : 19:07:02
Host   : "computer"
PID    : 7169
I/O    : uncollated
Case   : /media/user/Documents/ZHAW/PhD/CFD/Hayabusa/case
nProcs : 1
sigFpe : Enabling floating point exception trapping (FOAM_SIGFPE).
fileModificationChecking : Monitoring run-time modified files using timeStampMaster (fileModificationSkew 10)
allowSystemOperations : Allowing user-supplied system call operations

// * * * * * * * * * * * * * * * * * * * * * * * * * * * * * * * * * * * * * //
Create time

Reading "blockMeshDict"

Creating block mesh from
    "system/blockMeshDict"
Creating block edges
Creating block faces
Creating topology blocks
Creating topology patches

Creating block mesh topology
--> FOAM Warning : 
    From function Foam::polyMesh::polyMesh(const Foam::IOobject&, Foam::pointField&&, const cellShapeList&, const faceListList&, const wordList&, const Foam::PtrList<Foam::dictionary>&, const Foam::word&, const Foam::word&, bool)
    in file meshes/polyMesh/polyMeshFromShapeMesh.C at line 873
    Found 4 undefined faces in mesh; adding to default patch.

Check topology

	Basic statistics
		Number of internal faces : 24
		Number of boundary faces : 30
		Number of defined boundary faces : 30
		Number of undefined boundary faces : 0
	Checking patch -> block consistency

Creating block offsets
Creating merge list .

Creating polyMesh from blockMesh
Creating patches
Creating cells
Creating points with scale 1
    Block 0 cell size :
        i : 0.00710926 .. 0.00710926 0.00710926 .. 0.00710926 0.0291359 .. 0.0291359 0.0291359 .. 0.0291359 
        j : 0.00710926 .. 0.00710926 0.00710926 .. 0.00710926 0.0291359 .. 0.0291359 0.0291359 .. 0.0291359 
        k : 0.206422 .. 0.206422 0.197249 .. 0.197249 0.197249 .. 0.197249 0.18766 .. 0.18766 
    Block 1 cell size :
        i : 0.00710926 .. 0.00710926 0.00798302 .. 0.00798302 0.0291359 .. 0.0291359 0.0306231 .. 0.0306231 
        j : 0.00781592 .. 0.00781592 0.00825702 .. 0.00832506 0.0150541 .. 0.0149132 0.0170142 .. 0.0169255 
        k : 0.206422 .. 0.206422 0.197249 .. 0.197249 0.211105 .. 0.211105 0.202519 .. 0.202519 
    Block 2 cell size :
        i : 0.00710926 .. 0.00710926 0.00798302 0.0291359 .. 0.0291359 0.0306231 .. 0.0306231 
        j : 0.00781592 .. 0.00781592 0.00825702 .. 0.00832506 0.0150541 .. 0.0149132 0.0170142 .. 0.0169255 
        k : 0.206422 .. 0.206422 0.197249 .. 0.197249 0.211105 .. 0.211105 0.202519 .. 0.202519 
    Block 3 cell size :
        i : 0.00710926 .. 0.00710926 0.00798302 0.0291359 .. 0.0291359 0.0306231 .. 0.0306231 
        j : 0.00781592 .. 0.00781592 0.00825702 .. 0.00832506 0.0150541 .. 0.0149132 0.0170142 .. 0.0169255 
        k : 0.206422 .. 0.206422 0.197249 .. 0.197249 0.211105 .. 0.211105 0.202519 .. 0.202519 
    Block 4 cell size :
        i : 0.00710926 .. 0.00710926 0.00798302 .. 0.00798302 0.0291359 .. 0.0291359 0.0306231 .. 0.0306231 
        j : 0.00781592 .. 0.00781592 0.00825702 .. 0.00832506 0.0150541 .. 0.0149132 0.0170142 .. 0.0169255 
        k : 0.206422 .. 0.206422 0.197249 .. 0.197249 0.211105 .. 0.211105 0.202519 .. 0.202519 
    Block 5 cell size :
        i : 0.0188302 .. 0.0188302 0.0200855 .. 0.0200855 0.0546075 .. 0.0546075 0.0586315 .. 0.0586315 
        j : 0.0113137 .. 0.0113137 0.0113137 .. 0.0113137 0.0299966 .. 0.0304129 0.0296946 .. 0.0308573 
        k : 0.257651 .. 0.257651 0.257651 .. 0.257651 0.272003 .. 0.272003 0.271695 .. 0.271695 
    Block 6 cell size :
        i : 0.0188302 .. 0.0188302 0.0200855 .. 0.0200855 0.0546075 .. 0.0546075 0.0586315 .. 0.0586315 
        j : 0.0113137 .. 0.0113137 0.0113137 .. 0.0113137 0.0299966 .. 0.0304129 0.0296946 .. 0.0308573 
        k : 0.257651 .. 0.257651 0.257651 .. 0.257651 0.272003 .. 0.272003 0.271695 .. 0.271695 
    Block 7 cell size :
        i : 0.0188302 .. 0.0188302 0.0200855 .. 0.0200855 0.0546075 .. 0.0546075 0.0586315 .. 0.0586315 
        j : 0.0113137 .. 0.0113137 0.0113137 .. 0.0113137 0.0299966 .. 0.0304129 0.0296946 .. 0.0308573 
        k : 0.257651 .. 0.257651 0.257651 .. 0.257651 0.272003 .. 0.272003 0.271695 .. 0.271695 
    Block 8 cell size :
        i : 0.0188302 .. 0.0188302 0.0200855 .. 0.0200855 0.0546075 .. 0.0546075 0.0586315 .. 0.0586315 
        j : 0.0113137 .. 0.0113137 0.0113137 .. 0.0113137 0.0299966 .. 0.0304129 0.0296946 .. 0.0308573 
        k : 0.257651 .. 0.257651 0.257651 .. 0.257651 0.272003 .. 0.272003 0.271695 .. 0.271695 
    Block 9 cell size :
        i : 0.0313836 .. 0.0313836 0.0301283 .. 0.0301283 0.0910126 .. 0.0910126 0.0895776 .. 0.0895776 
        j : 0.0113137 .. 0.0113137 0.0113137 .. 0.0113137 0.028507 .. 0.0301217 0.0286281 .. 0.029896 
        k : 0.38 .. 0.38 0.38 .. 0.38 0.380776 .. 0.380776 0.380343 .. 0.380343 
    Block 10 cell size :
        i : 0.0313836 .. 0.0313836 0.0301283 .. 0.0301283 0.0910126 .. 0.0910126 0.0895776 
        j : 0.0113137 .. 0.0113137 0.0113137 .. 0.0113137 0.028507 .. 0.0301217 0.0286281 .. 0.029896 
        k : 0.38 .. 0.38 0.38 .. 0.38 0.380776 .. 0.380776 0.380343 .. 0.380343 
    Block 11 cell size :
        i : 0.0313836 .. 0.0313836 0.0301283 .. 0.0301283 0.0910126 .. 0.0910126 0.0895776 
        j : 0.0113137 .. 0.0113137 0.0113137 .. 0.0113137 0.028507 .. 0.0301217 0.0286281 .. 0.029896 
        k : 0.38 .. 0.38 0.38 .. 0.38 0.380776 .. 0.380776 0.380343 .. 0.380343 
    Block 12 cell size :
        i : 0.0313836 .. 0.0313836 0.0301283 .. 0.0301283 0.0910126 .. 0.0910126 0.0895776 
        j : 0.0113137 .. 0.0113137 0.0113137 .. 0.0113137 0.028507 .. 0.0301217 0.0286281 .. 0.029896 
        k : 0.38 .. 0.38 0.38 .. 0.38 0.380776 .. 0.380776 0.380343 .. 0.380343 

Writing polyMesh
----------------
Mesh Information
----------------
  boundingBox: (-1.60299 -4 -4) (1.94845 4 4)
  nPoints: 14531
  nCells: 13000
  nFaces: 40500
  nInternalFaces: 37500
----------------
Patches
----------------
  patch 0 (start: 37500 size: 400) name: outlet
  patch 1 (start: 37900 size: 900) name: inlet
  patch 2 (start: 38800 size: 1300) name: wall
  patch 3 (start: 40100 size: 400) name: defaultFaces

End

