/*---------------------------------------------------------------------------*\
  =========                 |
  \\      /  F ield         | OpenFOAM: The Open Source CFD Toolbox
   \\    /   O peration     | Website:  https://openfoam.org
    \\  /    A nd           | Version:  8
     \\/     M anipulation  |
\*---------------------------------------------------------------------------*/
Build  : 8-1c9b5879390b
Exec   : blockMesh
Date   : Mar 02 2022
Time   : 10:34:05
Host   : "pc"
PID    : 20733
I/O    : uncollated
Case   : /home/user/Documents/PhD/PhD_Kuntzer/PhD_Kuntzer/8_CFD/Hayabusa/case
nProcs : 1
sigFpe : Enabling floating point exception trapping (FOAM_SIGFPE).
fileModificationChecking : Monitoring run-time modified files using timeStampMaster (fileModificationSkew 10)
allowSystemOperations : Allowing user-supplied system call operations

// * * * * * * * * * * * * * * * * * * * * * * * * * * * * * * * * * * * * * //
Create time

Creating block mesh from
    "system/blockMeshDict"
Creating block edges
Creating block faces
Creating topology blocks
Creating topology patches

Creating block mesh topology

Check topology

	Basic statistics
		Number of internal faces : 36
		Number of boundary faces : 36
		Number of defined boundary faces : 36
		Number of undefined boundary faces : 0
	Checking patch -> block consistency

Creating block offsets
Creating merge list .

Creating polyMesh from blockMesh
Creating patches
Creating cells
Creating points with scale 1
    Block 0 cell size :
        i : 0.00710926 .. 0.00710926 0.00710926 .. 0.00710926 0.0155919 .. 0.0155919 0.0155919 .. 0.0155919 
        j : 0.00710926 .. 0.00710926 0.00710926 .. 0.00710926 0.0155919 .. 0.0155919 0.0155919 .. 0.0155919 
        k : 0.0795193 .. 0.410302 0.0759859 .. 0.39207 0.0759859 .. 0.39207 0.0722917 .. 0.373009 
    Block 1 cell size :
        i : 0.00710926 .. 0.00710926 0.00798302 .. 0.00798302 0.0155919 .. 0.0155919 0.0167009 .. 0.0167009 
        j : 0.00781592 .. 0.00781592 0.00825702 .. 0.00832506 0.0106011 .. 0.0105068 0.0116253 .. 0.011587 
        k : 0.0795193 .. 0.410302 0.0759859 .. 0.39207 0.0813233 .. 0.41961 0.0780158 .. 0.402544 
    Block 2 cell size :
        i : 0.00710926 .. 0.00710926 0.00798302 0.0155919 .. 0.0155919 0.0167009 
        j : 0.00781592 .. 0.00781592 0.00825702 .. 0.00832506 0.0106011 .. 0.0105068 0.0116253 .. 0.011587 
        k : 0.0795193 .. 0.410302 0.0759859 .. 0.39207 0.0813233 .. 0.41961 0.0780158 .. 0.402544 
    Block 3 cell size :
        i : 0.00710926 .. 0.00710926 0.00798302 0.0155919 .. 0.0155919 0.0167009 
        j : 0.00781592 .. 0.00781592 0.00825702 .. 0.00832506 0.0106011 .. 0.0105068 0.0116253 .. 0.011587 
        k : 0.0795193 .. 0.410302 0.0759859 .. 0.39207 0.0813233 .. 0.41961 0.0780158 .. 0.402544 
    Block 4 cell size :
        i : 0.00710926 .. 0.00710926 0.00798302 .. 0.00798302 0.0155919 .. 0.0155919 0.0167009 .. 0.0167009 
        j : 0.00781592 .. 0.00781592 0.00825702 .. 0.00832506 0.0106011 .. 0.0105068 0.0116253 .. 0.011587 
        k : 0.0795193 .. 0.410302 0.0759859 .. 0.39207 0.0813233 .. 0.41961 0.0780158 .. 0.402544 
    Block 5 cell size :
        i : 0.0188302 .. 0.0188302 0.0200855 .. 0.0200855 0.0326126 .. 0.0326126 0.0349344 .. 0.0349344 
        j : 0.0113137 .. 0.0113137 0.0113137 .. 0.0113137 0.0182942 .. 0.0182801 0.0181855 .. 0.0185124 
        k : 0.0992542 .. 0.51213 0.0992542 .. 0.51213 0.104783 .. 0.540658 0.104664 .. 0.540046 
    Block 6 cell size :
        i : 0.0188302 .. 0.0188302 0.0200855 .. 0.0200855 0.0326126 .. 0.0326126 0.0349344 .. 0.0349344 
        j : 0.0113137 .. 0.0113137 0.0113137 .. 0.0113137 0.0182942 .. 0.0182801 0.0181855 .. 0.0185124 
        k : 0.0992542 .. 0.51213 0.0992542 .. 0.51213 0.104783 .. 0.540658 0.104664 .. 0.540046 
    Block 7 cell size :
        i : 0.0188302 .. 0.0188302 0.0200855 .. 0.0200855 0.0326126 .. 0.0326126 0.0349344 .. 0.0349344 
        j : 0.0113137 .. 0.0113137 0.0113137 .. 0.0113137 0.0182942 .. 0.0182801 0.0181855 .. 0.0185124 
        k : 0.0992542 .. 0.51213 0.0992542 .. 0.51213 0.104783 .. 0.540658 0.104664 .. 0.540046 
    Block 8 cell size :
        i : 0.0188302 .. 0.0188302 0.0200855 .. 0.0200855 0.0326126 .. 0.0326126 0.0349344 .. 0.0349344 
        j : 0.0113137 .. 0.0113137 0.0113137 .. 0.0113137 0.0182942 .. 0.0182801 0.0181855 .. 0.0185124 
        k : 0.0992542 .. 0.51213 0.0992542 .. 0.51213 0.104783 .. 0.540658 0.104664 .. 0.540046 
    Block 9 cell size :
        i : 0.0313836 .. 0.0313836 0.0301283 .. 0.0301283 0.0543543 .. 0.0543543 0.0530297 .. 0.0530297 
        j : 0.0113137 .. 0.0113137 0.0113137 .. 0.0113137 0.0173842 .. 0.0184709 0.0174609 .. 0.0183737 
        k : 0.146386 .. 0.755322 0.146386 .. 0.755322 0.146685 .. 0.756865 0.146519 .. 0.756004 
    Block 10 cell size :
        i : 0.0313836 .. 0.0313836 0.0301283 .. 0.0301283 0.0543543 .. 0.0543543 0.0530297 .. 0.0530297 
        j : 0.0113137 .. 0.0113137 0.0113137 .. 0.0113137 0.0173842 .. 0.0184709 0.0174609 .. 0.0183737 
        k : 0.146386 .. 0.755322 0.146386 .. 0.755322 0.146685 .. 0.756865 0.146519 .. 0.756004 
    Block 11 cell size :
        i : 0.0313836 .. 0.0313836 0.0301283 .. 0.0301283 0.0543543 .. 0.0543543 0.0530297 .. 0.0530297 
        j : 0.0113137 .. 0.0113137 0.0113137 .. 0.0113137 0.0173842 .. 0.0184709 0.0174609 .. 0.0183737 
        k : 0.146386 .. 0.755322 0.146386 .. 0.755322 0.146685 .. 0.756865 0.146519 .. 0.756004 
    Block 12 cell size :
        i : 0.0313836 .. 0.0313836 0.0301283 .. 0.0301283 0.0543543 .. 0.0543543 0.0530297 .. 0.0530297 
        j : 0.0113137 .. 0.0113137 0.0113137 .. 0.0113137 0.0173842 .. 0.0184709 0.0174609 .. 0.0183737 
        k : 0.146386 .. 0.755322 0.146386 .. 0.755322 0.146685 .. 0.756865 0.146519 .. 0.756004 
    Block 13 cell size :
        i : 0.0188302 .. 0.0188302 0.017449 .. 0.017449 0.0392219 0.0367595 .. 0.0367595 
        j : 0.0073812 .. 0.0073812 0.00782441 .. 0.00782441 0.0133543 .. 0.0147762 0.014657 .. 0.0158614 
        k : 0.148553 .. 0.766502 0.148553 .. 0.766502 0.148774 .. 0.767643 0.148268 .. 0.765032 
    Block 14 cell size :
        i : 0.0188302 .. 0.0188302 0.017449 .. 0.017449 0.0392219 0.0367595 .. 0.0367595 
        j : 0.0073812 .. 0.0073812 0.00782441 .. 0.00782441 0.0133543 .. 0.0147762 0.014657 .. 0.0158614 
        k : 0.148553 .. 0.766502 0.148553 .. 0.766502 0.148774 .. 0.767643 0.148268 .. 0.765032 
    Block 15 cell size :
        i : 0.0188302 .. 0.0188302 0.017449 .. 0.017449 0.0392219 0.0367595 .. 0.0367595 
        j : 0.0073812 .. 0.0073812 0.00782441 .. 0.00782441 0.0133543 .. 0.0147762 0.014657 .. 0.0158614 
        k : 0.148553 .. 0.766502 0.148553 .. 0.766502 0.148774 .. 0.767643 0.148268 .. 0.765032 
    Block 16 cell size :
        i : 0.0188302 .. 0.0188302 0.017449 .. 0.017449 0.0392219 0.0367595 .. 0.0367595 
        j : 0.0073812 .. 0.0073812 0.00782441 .. 0.00782441 0.0133543 .. 0.0147762 0.014657 .. 0.0158614 
        k : 0.148553 .. 0.766502 0.148553 .. 0.766502 0.148774 .. 0.767643 0.148268 .. 0.765032 
    Block 17 cell size :
        i : 0.288562 .. 0.288562 0.288562 .. 0.288562 0.232426 .. 0.232426 0.232426 .. 0.232426 
        j : 0.288562 .. 0.288562 0.288562 .. 0.288562 0.232426 .. 0.232426 0.232426 .. 0.232426 
        k : 0.776714 .. 0.150532 0.777101 .. 0.150607 0.777101 .. 0.150607 0.77798 .. 0.150778 

Writing polyMesh
----------------
Mesh Information
----------------
  boundingBox: (-1.60299 -4 -4) (4.0192 4 4)
  nPoints: 19822
  nCells: 18000
  nFaces: 55800
  nInternalFaces: 52200
----------------
Patches
----------------
  patch 0 (start: 52200 size: 1800) name: wall
  patch 1 (start: 54000 size: 900) name: outlet
  patch 2 (start: 54900 size: 900) name: inlet

End

