/*---------------------------------------------------------------------------*\
  =========                 |
  \\      /  F ield         | OpenFOAM: The Open Source CFD Toolbox
   \\    /   O peration     | Website:  https://openfoam.org
    \\  /    A nd           | Version:  8
     \\/     M anipulation  |
\*---------------------------------------------------------------------------*/
Build  : 8-1c9b5879390b
Exec   : blockMesh
Date   : Feb 28 2022
Time   : 11:45:50
Host   : "pc"
PID    : 19751
I/O    : uncollated
Case   : /home/user/Documents/PhD/PhD_Kuntzer/PhD_Kuntzer/8_CFD/Hayabusa/case
nProcs : 1
sigFpe : Enabling floating point exception trapping (FOAM_SIGFPE).
fileModificationChecking : Monitoring run-time modified files using timeStampMaster (fileModificationSkew 10)
allowSystemOperations : Allowing user-supplied system call operations

// * * * * * * * * * * * * * * * * * * * * * * * * * * * * * * * * * * * * * //
Create time

Creating block mesh from
    "system/blockMeshDict"
Creating block edges
Creating block faces
Creating topology blocks
Creating topology patches

Creating block mesh topology

Check topology

	Basic statistics
		Number of internal faces : 36
		Number of boundary faces : 36
		Number of defined boundary faces : 36
		Number of undefined boundary faces : 0
	Checking patch -> block consistency

Creating block offsets
Creating merge list .

Creating polyMesh from blockMesh
Creating patches
Creating cells
Creating points with scale 1
    Block 0 cell size :
        i : 0.00710926 .. 0.00710926 0.00710926 .. 0.00710926 0.0291359 .. 0.0291359 0.0291359 .. 0.0291359 
        j : 0.00710926 .. 0.00710926 0.00710926 .. 0.00710926 0.0291359 .. 0.0291359 0.0291359 .. 0.0291359 
        k : 0.206422 .. 0.206422 0.197249 .. 0.197249 0.197249 .. 0.197249 0.18766 .. 0.18766 
    Block 1 cell size :
        i : 0.00710926 .. 0.00710926 0.00798302 .. 0.00798302 0.0291359 .. 0.0291359 0.0306231 .. 0.0306231 
        j : 0.00781592 .. 0.00781592 0.00825702 .. 0.00832506 0.0150541 .. 0.0149132 0.0170142 .. 0.0169255 
        k : 0.206422 .. 0.206422 0.197249 .. 0.197249 0.211105 .. 0.211105 0.202519 .. 0.202519 
    Block 2 cell size :
        i : 0.00710926 .. 0.00710926 0.00798302 0.0291359 .. 0.0291359 0.0306231 .. 0.0306231 
        j : 0.00781592 .. 0.00781592 0.00825702 .. 0.00832506 0.0150541 .. 0.0149132 0.0170142 .. 0.0169255 
        k : 0.206422 .. 0.206422 0.197249 .. 0.197249 0.211105 .. 0.211105 0.202519 .. 0.202519 
    Block 3 cell size :
        i : 0.00710926 .. 0.00710926 0.00798302 0.0291359 .. 0.0291359 0.0306231 .. 0.0306231 
        j : 0.00781592 .. 0.00781592 0.00825702 .. 0.00832506 0.0150541 .. 0.0149132 0.0170142 .. 0.0169255 
        k : 0.206422 .. 0.206422 0.197249 .. 0.197249 0.211105 .. 0.211105 0.202519 .. 0.202519 
    Block 4 cell size :
        i : 0.00710926 .. 0.00710926 0.00798302 .. 0.00798302 0.0291359 .. 0.0291359 0.0306231 .. 0.0306231 
        j : 0.00781592 .. 0.00781592 0.00825702 .. 0.00832506 0.0150541 .. 0.0149132 0.0170142 .. 0.0169255 
        k : 0.206422 .. 0.206422 0.197249 .. 0.197249 0.211105 .. 0.211105 0.202519 .. 0.202519 
    Block 5 cell size :
        i : 0.0188302 .. 0.0188302 0.0200855 .. 0.0200855 0.0546075 .. 0.0546075 0.0586315 .. 0.0586315 
        j : 0.0113137 .. 0.0113137 0.0113137 .. 0.0113137 0.0299966 .. 0.0304129 0.0296946 .. 0.0308573 
        k : 0.257651 .. 0.257651 0.257651 .. 0.257651 0.272003 .. 0.272003 0.271695 .. 0.271695 
    Block 6 cell size :
        i : 0.0188302 .. 0.0188302 0.0200855 .. 0.0200855 0.0546075 .. 0.0546075 0.0586315 .. 0.0586315 
        j : 0.0113137 .. 0.0113137 0.0113137 .. 0.0113137 0.0299966 .. 0.0304129 0.0296946 .. 0.0308573 
        k : 0.257651 .. 0.257651 0.257651 .. 0.257651 0.272003 .. 0.272003 0.271695 .. 0.271695 
    Block 7 cell size :
        i : 0.0188302 .. 0.0188302 0.0200855 .. 0.0200855 0.0546075 .. 0.0546075 0.0586315 .. 0.0586315 
        j : 0.0113137 .. 0.0113137 0.0113137 .. 0.0113137 0.0299966 .. 0.0304129 0.0296946 .. 0.0308573 
        k : 0.257651 .. 0.257651 0.257651 .. 0.257651 0.272003 .. 0.272003 0.271695 .. 0.271695 
    Block 8 cell size :
        i : 0.0188302 .. 0.0188302 0.0200855 .. 0.0200855 0.0546075 .. 0.0546075 0.0586315 .. 0.0586315 
        j : 0.0113137 .. 0.0113137 0.0113137 .. 0.0113137 0.0299966 .. 0.0304129 0.0296946 .. 0.0308573 
        k : 0.257651 .. 0.257651 0.257651 .. 0.257651 0.272003 .. 0.272003 0.271695 .. 0.271695 
    Block 9 cell size :
        i : 0.0313836 .. 0.0313836 0.0301283 .. 0.0301283 0.0910126 .. 0.0910126 0.0895776 .. 0.0895776 
        j : 0.0113137 .. 0.0113137 0.0113137 .. 0.0113137 0.028507 .. 0.0301217 0.0286281 .. 0.029896 
        k : 0.38 .. 0.38 0.38 .. 0.38 0.380776 .. 0.380776 0.380343 .. 0.380343 
    Block 10 cell size :
        i : 0.0313836 .. 0.0313836 0.0301283 .. 0.0301283 0.0910126 .. 0.0910126 0.0895776 
        j : 0.0113137 .. 0.0113137 0.0113137 .. 0.0113137 0.028507 .. 0.0301217 0.0286281 .. 0.029896 
        k : 0.38 .. 0.38 0.38 .. 0.38 0.380776 .. 0.380776 0.380343 .. 0.380343 
    Block 11 cell size :
        i : 0.0313836 .. 0.0313836 0.0301283 .. 0.0301283 0.0910126 .. 0.0910126 0.0895776 
        j : 0.0113137 .. 0.0113137 0.0113137 .. 0.0113137 0.028507 .. 0.0301217 0.0286281 .. 0.029896 
        k : 0.38 .. 0.38 0.38 .. 0.38 0.380776 .. 0.380776 0.380343 .. 0.380343 
    Block 12 cell size :
        i : 0.0313836 .. 0.0313836 0.0301283 .. 0.0301283 0.0910126 .. 0.0910126 0.0895776 
        j : 0.0113137 .. 0.0113137 0.0113137 .. 0.0113137 0.028507 .. 0.0301217 0.0286281 .. 0.029896 
        k : 0.38 .. 0.38 0.38 .. 0.38 0.380776 .. 0.380776 0.380343 .. 0.380343 
    Block 13 cell size :
        i : 0.0188302 .. 0.0188302 0.017449 .. 0.017449 0.0717643 .. 0.0717643 0.0675803 .. 0.0675803 
        j : 0.0073812 .. 0.0073812 0.00782441 .. 0.00782441 0.0254689 .. 0.0273104 0.0280446 .. 0.0294817 
        k : 0.385625 .. 0.385625 0.385625 .. 0.385625 0.386199 .. 0.386199 0.384885 .. 0.384885 
    Block 14 cell size :
        i : 0.0188302 .. 0.0188302 0.017449 .. 0.017449 0.0717643 .. 0.0717643 0.0675803 .. 0.0675803 
        j : 0.0073812 .. 0.0073812 0.00782441 .. 0.00782441 0.0254689 .. 0.0273104 0.0280446 .. 0.0294817 
        k : 0.385625 .. 0.385625 0.385625 .. 0.385625 0.386199 .. 0.386199 0.384885 .. 0.384885 
    Block 15 cell size :
        i : 0.0188302 .. 0.0188302 0.017449 .. 0.017449 0.0717643 .. 0.0717643 0.0675803 .. 0.0675803 
        j : 0.0073812 .. 0.0073812 0.00782441 .. 0.00782441 0.0254689 .. 0.0273104 0.0280446 .. 0.0294817 
        k : 0.385625 .. 0.385625 0.385625 .. 0.385625 0.386199 .. 0.386199 0.384885 .. 0.384885 
    Block 16 cell size :
        i : 0.0188302 .. 0.0188302 0.017449 .. 0.017449 0.0717643 .. 0.0717643 0.0675803 .. 0.0675803 
        j : 0.0073812 .. 0.0073812 0.00782441 .. 0.00782441 0.0254689 .. 0.0273104 0.0280446 .. 0.0294817 
        k : 0.385625 .. 0.385625 0.385625 .. 0.385625 0.386199 .. 0.386199 0.384885 .. 0.384885 
    Block 17 cell size :
        i : 0.288562 .. 0.288562 0.288562 .. 0.288562 0.26032 .. 0.26032 0.26032 
        j : 0.288562 .. 0.288562 0.288562 .. 0.288562 0.26032 .. 0.26032 0.26032 .. 0.26032 
        k : 0.390762 .. 0.390762 0.390957 .. 0.390957 0.390957 .. 0.390957 0.391399 .. 0.391399 

Writing polyMesh
----------------
Mesh Information
----------------
  boundingBox: (-1.60299 -4 -4) (4.0192 4 4)
  nPoints: 19822
  nCells: 18000
  nFaces: 55800
  nInternalFaces: 52200
----------------
Patches
----------------
  patch 0 (start: 52200 size: 900) name: inlet
  patch 1 (start: 53100 size: 1800) name: wall
  patch 2 (start: 54900 size: 900) name: outlet

End

