/*---------------------------------------------------------------------------*\
  =========                 |
  \\      /  F ield         | OpenFOAM: The Open Source CFD Toolbox
   \\    /   O peration     | Website:  https://openfoam.org
    \\  /    A nd           | Version:  8
     \\/     M anipulation  |
\*---------------------------------------------------------------------------*/
Build  : 8-1c9b5879390b
Exec   : blockMesh
Date   : Mar 01 2022
Time   : 18:59:42
Host   : "pc"
PID    : 60283
I/O    : uncollated
Case   : /home/user/Documents/PhD/PhD_Kuntzer/PhD_Kuntzer/8_CFD/Hayabusa/case
nProcs : 1
sigFpe : Enabling floating point exception trapping (FOAM_SIGFPE).
fileModificationChecking : Monitoring run-time modified files using timeStampMaster (fileModificationSkew 10)
allowSystemOperations : Allowing user-supplied system call operations

// * * * * * * * * * * * * * * * * * * * * * * * * * * * * * * * * * * * * * //
Create time

Creating block mesh from
    "system/blockMeshDict"
Creating block edges
Creating block faces
Creating topology blocks
Creating topology patches

Creating block mesh topology

Check topology

	Basic statistics
		Number of internal faces : 36
		Number of boundary faces : 36
		Number of defined boundary faces : 36
		Number of undefined boundary faces : 0
	Checking patch -> block consistency

Creating block offsets
Creating merge list .

Creating polyMesh from blockMesh
Creating patches
Creating cells
Creating points with scale 1
    Block 0 cell size :
        i : 0.00473965 .. 0.00473965 0.00473965 .. 0.00473965 0.00485432 .. 0.00485432 0.00485432 .. 0.00485432 
        j : 0.00473965 .. 0.00473965 0.00473965 .. 0.00473965 0.00485432 0.00485432 .. 0.00485432 
        k : 0.00174655 .. 0.345491 0.00169693 .. 0.335676 0.00169693 .. 0.335676 0.00164592 .. 0.325585 
    Block 1 cell size :
        i : 0.00473965 .. 0.00473965 0.00510278 .. 0.00510278 0.00485432 0.00521973 .. 0.00521973 
        j : 0.0052108 .. 0.0052108 0.00540973 .. 0.00544137 0.00524788 .. 0.00524647 0.00545242 .. 0.00548235 
        k : 0.00174655 .. 0.345491 0.00169693 .. 0.335676 0.00177048 .. 0.350224 0.00172326 .. 0.340884 
    Block 2 cell size :
        i : 0.00473965 .. 0.00473965 0.00510278 0.00485432 0.00521973 .. 0.00521973 
        j : 0.0052108 .. 0.0052108 0.00540973 .. 0.00544137 0.00524788 .. 0.00524647 0.00545242 .. 0.00548235 
        k : 0.00174655 .. 0.345491 0.00169693 .. 0.335676 0.00177048 .. 0.350224 0.00172326 .. 0.340884 
    Block 3 cell size :
        i : 0.00473965 .. 0.00473965 0.00510278 0.00485432 0.00521973 .. 0.00521973 
        j : 0.0052108 .. 0.0052108 0.00540973 .. 0.00544137 0.00524788 .. 0.00524647 0.00545242 .. 0.00548235 
        k : 0.00174655 .. 0.345491 0.00169693 .. 0.335676 0.00177048 .. 0.350224 0.00172326 .. 0.340884 
    Block 4 cell size :
        i : 0.00473965 .. 0.00473965 0.00510278 .. 0.00510278 0.00485432 0.00521973 .. 0.00521973 
        j : 0.0052108 .. 0.0052108 0.00540973 .. 0.00544137 0.00524788 .. 0.00524647 0.00545242 .. 0.00548235 
        k : 0.00174655 .. 0.345491 0.00169693 .. 0.335676 0.00177048 .. 0.350224 0.00172326 .. 0.340884 
    Block 5 cell size :
        i : 0.0125606 .. 0.0125606 0.0131189 .. 0.0131189 0.0127626 .. 0.0127626 0.0133304 .. 0.0133304 
        j : 0.00754247 .. 0.00754247 0.00754247 .. 0.00754247 0.00762877 .. 0.00763147 0.00762837 .. 0.00763494 
        k : 0.00218001 .. 0.431235 0.00218001 .. 0.431235 0.00225175 .. 0.445427 0.00225125 .. 0.445328 
    Block 6 cell size :
        i : 0.0125606 .. 0.0125606 0.0131189 .. 0.0131189 0.0127626 .. 0.0127626 0.0133304 .. 0.0133304 
        j : 0.00754247 .. 0.00754247 0.00754247 .. 0.00754247 0.00762877 .. 0.00763147 0.00762837 .. 0.00763494 
        k : 0.00218001 .. 0.431235 0.00218001 .. 0.431235 0.00225175 .. 0.445427 0.00225125 .. 0.445328 
    Block 7 cell size :
        i : 0.0125606 .. 0.0125606 0.0131189 .. 0.0131189 0.0127626 .. 0.0127626 0.0133304 .. 0.0133304 
        j : 0.00754247 .. 0.00754247 0.00754247 .. 0.00754247 0.00762877 .. 0.00763147 0.00762837 .. 0.00763494 
        k : 0.00218001 .. 0.431235 0.00218001 .. 0.431235 0.00225175 .. 0.445427 0.00225125 .. 0.445328 
    Block 8 cell size :
        i : 0.0125606 .. 0.0125606 0.0131189 .. 0.0131189 0.0127626 .. 0.0127626 0.0133304 .. 0.0133304 
        j : 0.00754247 .. 0.00754247 0.00754247 .. 0.00754247 0.00762877 .. 0.00763147 0.00762837 .. 0.00763494 
        k : 0.00218001 .. 0.431235 0.00218001 .. 0.431235 0.00225175 .. 0.445427 0.00225125 .. 0.445328 
    Block 9 cell size :
        i : 0.0209344 .. 0.0209344 0.0203761 .. 0.0203761 0.0212709 .. 0.0212709 0.020712 .. 0.020712 
        j : 0.00754247 .. 0.00754247 0.00754247 .. 0.00754247 0.00761267 .. 0.00763714 0.00761387 .. 0.00763618 
        k : 0.00321521 .. 0.636013 0.00321521 .. 0.636013 0.00321911 .. 0.636783 0.0032174 .. 0.636445 
    Block 10 cell size :
        i : 0.0209344 .. 0.0209344 0.0203761 .. 0.0203761 0.0212709 .. 0.0212709 0.020712 .. 0.020712 
        j : 0.00754247 .. 0.00754247 0.00754247 .. 0.00754247 0.00761267 .. 0.00763714 0.00761387 .. 0.00763618 
        k : 0.00321521 .. 0.636013 0.00321521 .. 0.636013 0.00321911 .. 0.636783 0.0032174 .. 0.636445 
    Block 11 cell size :
        i : 0.0209344 .. 0.0209344 0.0203761 .. 0.0203761 0.0212709 .. 0.0212709 0.020712 .. 0.020712 
        j : 0.00754247 .. 0.00754247 0.00754247 .. 0.00754247 0.00761267 .. 0.00763714 0.00761387 .. 0.00763618 
        k : 0.00321521 .. 0.636013 0.00321521 .. 0.636013 0.00321911 .. 0.636783 0.0032174 .. 0.636445 
    Block 12 cell size :
        i : 0.0209344 .. 0.0209344 0.0203761 .. 0.0203761 0.0212709 .. 0.0212709 0.020712 .. 0.020712 
        j : 0.00754247 .. 0.00754247 0.00754247 .. 0.00754247 0.00761267 .. 0.00763714 0.00761387 .. 0.00763618 
        k : 0.00321521 .. 0.636013 0.00321521 .. 0.636013 0.00321911 .. 0.636783 0.0032174 .. 0.636445 
    Block 13 cell size :
        i : 0.0125606 .. 0.0125606 0.0119406 .. 0.0119406 0.0128594 .. 0.0128594 0.0122283 .. 0.0122283 
        j : 0.0049208 .. 0.0049208 0.00512127 .. 0.00512127 0.00497416 .. 0.00501251 0.00518291 .. 0.00521871 
        k : 0.0032628 .. 0.645427 0.0032628 .. 0.645427 0.00326549 .. 0.645958 0.00326029 .. 0.64493 
    Block 14 cell size :
        i : 0.0125606 .. 0.0125606 0.0119406 .. 0.0119406 0.0128594 .. 0.0128594 0.0122283 .. 0.0122283 
        j : 0.0049208 .. 0.0049208 0.00512127 .. 0.00512127 0.00497416 .. 0.00501251 0.00518291 .. 0.00521871 
        k : 0.0032628 .. 0.645427 0.0032628 .. 0.645427 0.00326549 .. 0.645958 0.00326029 .. 0.64493 
    Block 15 cell size :
        i : 0.0125606 .. 0.0125606 0.0119406 .. 0.0119406 0.0128594 .. 0.0128594 0.0122283 .. 0.0122283 
        j : 0.0049208 .. 0.0049208 0.00512127 .. 0.00512127 0.00497416 .. 0.00501251 0.00518291 .. 0.00521871 
        k : 0.0032628 .. 0.645427 0.0032628 .. 0.645427 0.00326549 .. 0.645958 0.00326029 .. 0.64493 
    Block 16 cell size :
        i : 0.0125606 .. 0.0125606 0.0119406 .. 0.0119406 0.0128594 .. 0.0128594 0.0122283 .. 0.0122283 
        j : 0.0049208 .. 0.0049208 0.00512127 .. 0.00512127 0.00497416 .. 0.00501251 0.00518291 .. 0.00521871 
        k : 0.0032628 .. 0.645427 0.0032628 .. 0.645427 0.00326549 .. 0.645958 0.00326029 .. 0.64493 
    Block 17 cell size :
        i : 0.17794 .. 0.17794 0.17794 .. 0.17794 0.148841 0.148841 .. 0.148841 
        j : 0.17794 .. 0.17794 0.17794 .. 0.17794 0.148841 .. 0.148841 0.148841 .. 0.148841 
        k : 0.654026 .. 0.00330627 0.654044 .. 0.00330636 0.654044 .. 0.00330636 0.654226 .. 0.00330729 

Writing polyMesh
----------------
Mesh Information
----------------
  boundingBox: (-1.60239 -3.99452 -3.99452) (4.01671 3.99452 3.99452)
  nPoints: 125612
  nCells: 121500
  nFaces: 368550
  nInternalFaces: 360450
----------------
Patches
----------------
  patch 0 (start: 360450 size: 4050) name: wall
  patch 1 (start: 364500 size: 2025) name: outlet
  patch 2 (start: 366525 size: 2025) name: inlet

End

